$ / / / / / / / / / / / / / / / / / / / / / / / / / / / / / / /  
$ -----------------------------------------------------
$ NASTRAN Input Deck generated by VA ONE
$ VA ONE solve option VAOne
$ VA ONE model name beam_tum
$ File Generated at 05/18/24 10:10:47
$ Units system used m-kg-sec (SI)
$ ---------------------------------------------------
$ / / / / / / / / / / / / / / / / / / / / / / / / / / / / / / 
$ "beam-FE"
NASTRAN NLINES = 9999999,MAXLINES = 99999999999
SOL 103
ECHO = NONE
TITLE=VAOne ANALYSIS ( no super elements) 
METHOD =1
$
$ HYBRID CASE CONTROL DATA
$
$ ---- START CASE CONTROL FOR RECOVERY OF STRESS/STRAIN/FORCE ---
DISPLACEMENT(PLOT)=ALL
$ ----------- END RECOVERY OF STRESS/STRAIN/FORCE -------
$ ----------- START USER DEFINED CASE CONTROL CARDS -----

$ ----------- END USER DEFINED CASE CONTROL CARDS -------
$ ----------- SPC case control command ---
SPC=1
$ -------------------------------
BEGIN BULK
EIGRL,1,-5.0,600.6
PARAM,POST,-2
PARAM,COUPMASS,-1
PARAM,GRDPNT,0
$ ----------- START USER DEFINED BULK DATA CARDS-------

$ ----------- END USER DEFINED BULK DATA CARDS-------
$ -----------------------------
$  SPC1 cards
SPC1           1123456         1
$ ----------------
$ FE Materials 
$ Aluminum (MAT1)
MAT1*   1               7.100000E+010   2.669000E+010                   *C000001
*C0000012700.           
$ VA ONE coordinate systems 
$ VA ONE Materials 
$ Aluminum
MAT1*                  2    7.100000E+10    2.670000E+10                *C000002
*C000002    2.700000E+03
$ VA ONE shell physical properties 
$ VA ONE beam physical properties 
PBAR*                  2               2    1.200000E-04    4.000000E-09*C000003
*C000003    3.600000E-10    4.360000E-09
$ VA ONE solid element physical properties 
$ FE physical properties 
$ UNIFORM SHELL (PSHELL)
PSHELL* 1               1               1E-3            1               *C000004
*C000004                1               
GRID*                  1                    0.000000E+00    0.000000E+00*C000005
*C000005    0.000000E+00
GRID*                  2                    5.000000E-01    0.000000E+00*C000006
*C000006    0.000000E+00
GRID*                  5                    5.000000E-02    0.000000E+00*C000007
*C000007    0.000000E+00
GRID*                  6                    1.000000E-01    0.000000E+00*C000008
*C000008    0.000000E+00
GRID*                  7                    1.500000E-01    0.000000E+00*C000009
*C000009    0.000000E+00
GRID*                  8                    2.000000E-01    0.000000E+00*C000010
*C000010    0.000000E+00
GRID*                  9                    2.500000E-01    0.000000E+00*C000011
*C000011    0.000000E+00
GRID*                 10                    3.000000E-01    0.000000E+00*C000012
*C000012    0.000000E+00
GRID*                 11                    3.500000E-01    0.000000E+00*C000013
*C000013    0.000000E+00
GRID*                 12                    4.000000E-01    0.000000E+00*C000014
*C000014    0.000000E+00
GRID*                 13                    4.500000E-01    0.000000E+00*C000015
*C000015    0.000000E+00
CBAR*                  1               2               1               5*C000016
*C000016    0.000000E+00    0.000000E+00    9.999999E-01
CBAR*                  2               2               5               6*C000017
*C000017    0.000000E+00    0.000000E+00    9.999999E-01
CBAR*                  3               2               6               7*C000018
*C000018    0.000000E+00    0.000000E+00    9.999999E-01
CBAR*                  4               2               7               8*C000019
*C000019    0.000000E+00    0.000000E+00    9.999999E-01
CBAR*                  5               2               8               9*C000020
*C000020    0.000000E+00    0.000000E+00    9.999999E-01
CBAR*                  6               2               9              10*C000021
*C000021    0.000000E+00    0.000000E+00    9.999999E-01
CBAR*                  7               2              10              11*C000022
*C000022    0.000000E+00    0.000000E+00    9.999999E-01
CBAR*                  8               2              11              12*C000023
*C000023    0.000000E+00    0.000000E+00    9.999999E-01
CBAR*                  9               2              12              13*C000024
*C000024    0.000000E+00    0.000000E+00    9.999999E-01
CBAR*                 10               2              13               2*C000025
*C000025    0.000000E+00    0.000000E+00    9.999999E-01
ENDDATA
