$ / / / / / / / / / / / / / / / / / / / / / / / / / / / / / / /  
$ -----------------------------------------------------
$ NASTRAN Input Deck generated by VA One
$ VA One solve option VAOne
$ VA One model name QA1NSEAS
$ File Generated at 07/17/21 11:28:32
$ Units system used m-kg-sec (SI)
$ ---------------------------------------------------
$ / / / / / / / / / / / / / / / / / / / / / / / / / / / / / / 
$ "Merged FE Subsystem"
NASTRAN NLINES = 9999999,MAXLINES = 99999999999
SOL 103
ECHO = NONE
TITLE=VAOne ANALYSIS ( no super elements) 
METHOD =1
$
$ HYBRID CASE CONTROL DATA
$
$ ---- START CASE CONTROL FOR RECOVERY OF STRESS/STRAIN/FORCE ---
DISPLACEMENT(PLOT)=ALL
$ ----------- END RECOVERY OF STRESS/STRAIN/FORCE -------
$ ----------- START USER DEFINED CASE CONTROL CARDS -----

$ ----------- END USER DEFINED CASE CONTROL CARDS -------
BEGIN BULK
EIGRL,1,-5.0,8494.8
PARAM,POST,-2
PARAM,COUPMASS,-1
PARAM,GRDPNT,0
$ ----------- START USER DEFINED BULK DATA CARDS-------

$ ----------- END USER DEFINED BULK DATA CARDS-------
$ -----------------------------
$ FE Materials 
$ Aluminum (MAT1)
MAT1*   1               7.100000E+010   2.669000E+010                   *C000001
*C0000012700.           
$ VA One Materials 
MAT1*                  2   2.000000E+011   7.619000E+010                *C000002
*C000002   8.000000E+003
$ VA One shell physical properties 
PSHELL*                2               2   1.000000E-002               2*C000003
*C000003                               2
$ VA One beam physical properties 
$ VA One solid element physical properties 
$ FE physical properties 
$ UNIFORM SHELL (PSHELL)
PSHELL* 1               1               1E-3            1               *C000004
*C000004                1               
GRID*                  1                   0.000000E+000   0.000000E+000*C000005
*C000005   0.000000E+000
GRID*                  2                   0.000000E+000   9.000000E-001*C000006
*C000006   0.000000E+000
GRID*                  3                  -1.000000E+000   0.000000E+000*C000007
*C000007   0.000000E+000
GRID*                  4                  -1.000000E+000   9.000000E-001*C000008
*C000008   0.000000E+000
GRID*               7944                  -6.969697E-001   0.000000E+000*C000009
*C000009   0.000000E+000
GRID*               7952                  -4.545455E-001   0.000000E+000*C000010
*C000010   0.000000E+000
GRID*               7959                  -2.424245E-001   0.000000E+000*C000011
*C000011   0.000000E+000
GRID*               7974                  -2.424242E-001   9.000000E-001*C000012
*C000012   0.000000E+000
GRID*               7981                  -4.545455E-001   9.000000E-001*C000013
*C000013   0.000000E+000
GRID*               7989                  -6.969695E-001   9.000000E-001*C000014
*C000014   0.000000E+000
GRID*              13498                   0.000000E+000   8.847457E-001*C000015
*C000015   0.000000E+000
GRID*              13499                   0.000000E+000   8.694915E-001*C000016
*C000016   0.000000E+000
GRID*              13500                   0.000000E+000   8.542373E-001*C000017
*C000017   0.000000E+000
GRID*              13501                   0.000000E+000   8.389831E-001*C000018
*C000018   0.000000E+000
GRID*              13502                   0.000000E+000   8.237288E-001*C000019
*C000019   0.000000E+000
GRID*              13503                   0.000000E+000   8.084745E-001*C000020
*C000020   0.000000E+000
GRID*              13504                   0.000000E+000   7.932203E-001*C000021
*C000021   0.000000E+000
GRID*              13505                   0.000000E+000   7.779661E-001*C000022
*C000022   0.000000E+000
GRID*              13506                   0.000000E+000   7.627119E-001*C000023
*C000023   0.000000E+000
GRID*              13507                   0.000000E+000   7.474576E-001*C000024
$ ... 8001 like lines cut
CQUAD4      9139       2   17307   16504   16345   16346
CQUAD4      9140       2   16711   17307   16346   16573
CQUAD4      9141       2   17013   16711   16573   16523
CQUAD4      9142       2   16658   17013   16523   16657
CQUAD4      9143       2   16454   16658   16657   17079
CQUAD4      9144       2   16979   16454   17079   17284
CQUAD4      9145       2   16792   16979   17284   17295
CQUAD4      9146       2   16749   16792   17295   16974
CQUAD4      9147       2   16917   16749   16974   17216
CQUAD4      9148       2   16990   16718   16473   17317
CQUAD4      9149       2   16440   16917   17216   17316
CQUAD4      9150       2   16370   17092   16955   17009
CQUAD4      9151       2   16913   16440   17316   17056
CQUAD4      9152       2   16375   16882   17309   17182
CQUAD4      9153       2   17069   16598   16471   16481
CQUAD4      9154       2   16598   17015   17320   16471
CQUAD4      9155       2   17015   16844   16633   17320
CQUAD4      9156       2   16844   16920   16595   16633
CQUAD4      9157       2   16920   16380   17037   16595
CQUAD4      9158       2   16380   17283   16547   17037
$ ... 3874 like lines cut
ENDDATA
